Version 4
SHEET 1 984 1024
WIRE -208 -128 -416 -128
WIRE -80 -128 -208 -128
WIRE 624 -128 -80 -128
WIRE -80 -48 -80 -128
WIRE -80 80 -80 16
WIRE 48 80 -80 80
WIRE -208 144 -208 -128
WIRE -80 144 -80 80
WIRE 48 144 48 80
WIRE -416 192 -416 -128
WIRE 624 192 624 -128
WIRE 48 272 48 224
WIRE 128 272 48 272
WIRE 208 272 128 272
WIRE 48 352 48 272
WIRE 128 352 128 272
WIRE 480 400 432 400
WIRE 736 400 480 400
WIRE 480 432 480 400
WIRE 208 496 208 272
WIRE 432 496 432 400
WIRE -416 544 -416 272
WIRE -208 544 -208 224
WIRE -208 544 -416 544
WIRE -80 544 -80 224
WIRE -80 544 -208 544
WIRE 48 544 48 416
WIRE 48 544 -80 544
WIRE 128 544 128 416
WIRE 128 544 48 544
WIRE 192 544 128 544
WIRE 320 544 288 544
WIRE 352 544 320 544
WIRE 480 544 480 512
WIRE 480 544 448 544
WIRE 624 544 624 272
WIRE 624 544 480 544
WIRE 624 560 624 544
WIRE 576 624 576 576
WIRE 480 640 480 544
WIRE 544 640 480 640
WIRE 928 640 928 592
WIRE 736 656 736 400
WIRE 736 656 608 656
WIRE 544 672 528 672
WIRE 576 736 576 688
WIRE 320 752 320 544
WIRE 432 752 320 752
WIRE 528 752 528 672
WIRE 528 752 512 752
WIRE 624 752 528 752
WIRE 736 752 736 656
WIRE 736 752 704 752
WIRE 928 752 928 720
WIRE 528 864 528 752
WIRE 624 864 528 864
WIRE 736 864 736 752
WIRE 736 864 688 864
FLAG 928 752 0
FLAG 928 592 +18V
FLAG 624 560 0
FLAG 576 736 +18V
FLAG 576 576 0
SYMBOL voltage -416 176 R0
WINDOW 123 0 0 Left 0
WINDOW 39 0 0 Left 0
SYMATTR InstName V1
SYMATTR Value PULSE(-20 20 0 1 1 0 1)
SYMBOL nmos 288 496 R90
SYMATTR InstName M1
SYMATTR Value IPP048N12N3
SYMBOL nmos 352 496 M90
SYMATTR InstName M2
SYMATTR Value IPP048N12N3
SYMBOL voltage 928 624 R0
WINDOW 123 0 0 Left 0
WINDOW 39 0 0 Left 0
SYMATTR InstName V3
SYMATTR Value 18
SYMBOL res 528 736 R90
WINDOW 0 0 56 VBottom 2
WINDOW 3 32 56 VTop 2
SYMATTR InstName R1
SYMATTR Value 270k
SYMBOL res 720 736 R90
WINDOW 0 0 56 VBottom 2
WINDOW 3 32 56 VTop 2
SYMATTR InstName R2
SYMATTR Value 10e6
SYMBOL res 464 416 R0
SYMATTR InstName R3
SYMATTR Value 3k3
SYMBOL cap 688 848 R90
WINDOW 0 0 32 VBottom 2
WINDOW 3 32 32 VTop 2
SYMATTR InstName C1
SYMATTR Value 1n
SYMATTR SpiceLine V=50
SYMBOL res -224 128 R0
SYMATTR InstName R4
SYMATTR Value 3k3
SYMBOL res -96 128 R0
SYMATTR InstName R5
SYMATTR Value 3k3
SYMBOL diode -96 -48 R0
SYMATTR InstName D1
SYMBOL res 32 128 R0
SYMATTR InstName R6
SYMATTR Value 47k
SYMBOL zener 64 416 R180
WINDOW 0 24 64 Left 2
WINDOW 3 24 0 Left 2
SYMATTR InstName D3
SYMATTR Value MMBZ15VAL
SYMBOL cap 112 352 R0
SYMATTR InstName C2
SYMATTR Value 10µ
SYMBOL Misc\\battery 624 176 R0
WINDOW 123 0 0 Left 0
WINDOW 39 0 0 Left 0
SYMATTR InstName V4
SYMATTR Value 19v
SYMBOL OpAmps\\UniversalOpamp2 576 656 M180
SYMATTR InstName U2
TEXT -450 914 Left 2 !.tran 0 1 0 0.001 startup
