Version 4
SHEET 1 880 680
WIRE -272 -256 -512 -256
WIRE -64 -256 -272 -256
WIRE 16 -256 -64 -256
WIRE 160 -256 112 -256
WIRE 288 -256 160 -256
WIRE 400 -256 384 -256
WIRE 544 -256 400 -256
WIRE 752 -256 544 -256
WIRE -512 -224 -512 -256
WIRE 544 -224 544 -256
WIRE 752 -208 752 -256
WIRE 400 -192 400 -256
WIRE 96 -176 96 -208
WIRE 160 -144 160 -256
WIRE 192 -144 160 -144
WIRE 304 -144 304 -208
WIRE 304 -144 256 -144
WIRE -272 -128 -272 -256
WIRE 544 -128 544 -160
WIRE -512 -96 -512 -144
WIRE 752 -80 752 -128
WIRE -144 -48 -176 -48
WIRE -32 -48 -80 -48
WIRE 96 -48 96 -96
WIRE 96 -48 48 -48
WIRE 272 -48 96 -48
WIRE 304 -48 304 -144
WIRE 304 -48 272 -48
WIRE -272 -32 -272 -64
WIRE 400 -32 400 -112
WIRE 512 -32 400 -32
WIRE 608 -32 512 -32
WIRE -176 0 -176 -48
WIRE -64 16 -64 -256
WIRE 16 16 -64 16
WIRE 160 16 160 -144
WIRE 160 16 144 16
WIRE 16 48 16 16
WIRE 144 48 144 16
WIRE 272 48 272 -48
WIRE 400 48 400 -32
WIRE 512 128 512 -32
WIRE 608 128 608 -32
WIRE -272 368 -272 32
WIRE 208 368 208 304
WIRE 208 368 -272 368
WIRE 512 368 512 192
WIRE 512 368 208 368
WIRE 608 368 608 192
WIRE 608 368 512 368
WIRE 208 416 208 368
WIRE 208 528 208 480
FLAG -176 0 0
FLAG 208 528 0
FLAG 544 -128 0
FLAG 752 -80 0
FLAG -512 -96 0
SYMBOL SpecialFunctions\\LTC4359 208 176 R0
SYMATTR InstName U1
SYMBOL nmos 16 -208 R270
SYMATTR InstName M1
SYMATTR Value IPB025N10N3
SYMBOL nmos 384 -208 M270
SYMATTR InstName M2
SYMATTR Value IPB025N10N3
SYMBOL cap 528 -224 R0
SYMATTR InstName C1
SYMATTR Value 10n
SYMBOL cap 496 128 R0
SYMATTR InstName C2
SYMATTR Value 1.5µ
SYMBOL cap -80 -64 R90
WINDOW 0 0 32 VBottom 2
WINDOW 3 32 32 VTop 2
SYMATTR InstName C3
SYMATTR Value 100n
SYMBOL res 64 -64 R90
WINDOW 0 0 56 VBottom 2
WINDOW 3 32 56 VTop 2
SYMATTR InstName R1
SYMATTR Value 10k
SYMBOL zener 192 -128 R270
WINDOW 0 36 32 VTop 2
WINDOW 3 -4 32 VBottom 2
SYMATTR InstName D1
SYMATTR Value BZX84B18VL
SYMBOL zener -288 -32 R0
WINDOW 3 -137 64 Left 2
SYMATTR InstName D2
SYMATTR Value BZX84B6V2L
SYMBOL zener -256 -64 R180
WINDOW 0 24 64 Left 2
WINDOW 3 24 0 Left 2
SYMATTR InstName D3
SYMATTR Value 1N5375B
SYMBOL res 80 -192 R0
SYMATTR InstName R2
SYMATTR Value 10
SYMBOL zener 624 192 R180
WINDOW 0 24 64 Left 2
WINDOW 3 -107 29 Left 2
SYMATTR InstName D4
SYMATTR Value 1N5375B
SYMBOL diode 192 416 R0
SYMATTR InstName D5
SYMBOL res 384 -208 R0
SYMATTR InstName R3
SYMATTR Value 2k
SYMBOL Misc\\battery 752 -224 R0
WINDOW 123 0 0 Left 0
WINDOW 39 0 0 Left 0
SYMATTR InstName V1
SYMATTR Value 10
SYMBOL voltage -512 -240 R0
WINDOW 123 0 0 Left 0
WINDOW 39 0 0 Left 0
SYMATTR InstName V2
SYMATTR Value 50v
TEXT -546 552 Left 2 !.tran 1 startup
