Version 4
SHEET 1 1196 824
WIRE 0 128 0 80
WIRE 48 128 48 80
WIRE 96 128 96 80
WIRE 144 128 144 80
WIRE 192 128 192 80
WIRE 240 128 240 80
WIRE 288 128 288 80
WIRE 352 128 352 80
WIRE 416 128 416 80
WIRE 480 128 480 80
WIRE -128 368 -128 352
WIRE 32 368 32 352
WIRE 32 368 -128 368
WIRE 144 368 144 352
WIRE 160 368 144 368
WIRE 256 368 256 352
WIRE 256 368 240 368
WIRE 384 368 384 352
WIRE 400 368 384 368
WIRE -128 400 -128 368
WIRE 256 400 256 368
WIRE 144 496 144 368
WIRE 160 496 144 496
WIRE 256 496 256 480
WIRE 256 496 224 496
WIRE 144 544 144 496
WIRE 256 544 256 496
WIRE 144 624 144 608
WIRE 256 624 256 608
WIRE 256 624 144 624
WIRE 256 640 256 624
FLAG 464 608 0
FLAG 464 528 +5v
FLAG -128 480 0
FLAG -128 288 +5v
FLAG 0 80 q3
FLAG 48 80 q4
FLAG 480 80 q13
FLAG 416 80 q12
FLAG 352 80 q11
FLAG 288 80 q9
FLAG 240 80 q8
FLAG 192 80 q7
FLAG 256 640 0
FLAG 400 368 f1
FLAG 640 64 f1
FLAG 640 96 q3
FLAG 640 128 q4
FLAG 640 224 q7
FLAG 640 288 q9
FLAG 640 352 q11
FLAG 640 384 q12
FLAG 640 416 q13
FLAG 640 256 q8
FLAG 720 96 q3_
FLAG 720 128 q4_
FLAG 720 224 q7_
FLAG 720 256 q8_
FLAG 720 288 q9_
FLAG 720 352 q11_
FLAG 720 384 q12_
FLAG 720 416 q13_
FLAG 720 64 f1_
FLAG 640 160 q5
FLAG 720 160 q5_
FLAG 640 192 q6
FLAG 720 192 q6_
FLAG 144 496 x1
FLAG 256 496 x2
FLAG 96 80 q5
FLAG 144 80 q6
SYMBOL CDlogic\\4060m1 240 240 R0
WINDOW 0 0 0 Left 0
SYMATTR InstName 4060m1
SYMBOL Misc\\battery 464 512 R0
SYMATTR InstName V1
SYMATTR Value 5v
SYMBOL res -144 384 R0
SYMATTR InstName R3
SYMATTR Value 10k
SYMBOL cap -144 288 R0
SYMATTR InstName C2
SYMATTR Value 100n
SYMBOL res 256 352 R90
WINDOW 0 0 56 VBottom 0
WINDOW 3 32 56 VTop 0
SYMATTR InstName R1
SYMATTR Value 470k
SYMBOL res 240 384 R0
SYMATTR InstName R2
SYMATTR Value 2k2
SYMBOL cap 240 544 R0
SYMATTR InstName C1
SYMATTR Value 100p
SYMBOL cap 128 544 R0
SYMATTR InstName C3
SYMATTR Value 49p
SYMBOL Misc\\xtal 224 480 R90
WINDOW 0 0 32 VBottom 0
WINDOW 3 32 32 VTop 0
SYMATTR InstName C4
SYMATTR Value 3e-012
SYMATTR SpiceLine V=25 Irms=20m Rser=80 Lser=.00895 Rpar=470k Cpar=3e-14
SYMBOL Misc\\dview12 656 208 R0
SYMATTR InstName U2
TEXT 400 432 Left 0 ;.lib cd4000.lib
TEXT 384 464 Left 0 !.include dview.lib
TEXT -96 392 Left 0 ;power RESET
TEXT -240 536 Left 0 !.tran 0 1.05m 1m .01u uic
TEXT 24 464 Left 0 ;1mHz Xtal
TEXT -232 584 Left 0 ;.savebias
