Version 4
SHEET 1 1196 772
WIRE 0 128 0 80
WIRE 48 128 48 80
WIRE 96 128 96 80
WIRE 144 128 144 80
WIRE 192 128 192 80
WIRE 240 128 240 80
WIRE 288 128 288 80
WIRE 352 128 352 80
WIRE 416 128 416 80
WIRE 480 128 480 80
WIRE -128 368 -128 352
WIRE 32 368 32 352
WIRE 32 368 -128 368
WIRE 384 368 384 352
WIRE 400 368 384 368
WIRE -128 400 -128 368
WIRE 144 416 144 352
WIRE 256 416 256 352
WIRE 384 432 384 368
WIRE 384 448 384 432
WIRE -272 528 -272 512
WIRE 144 544 144 496
WIRE 256 544 256 496
WIRE 256 544 144 544
WIRE 384 544 384 496
WIRE 384 544 256 544
FLAG -288 352 0
FLAG -288 272 +5v
FLAG -128 480 0
FLAG -128 288 +5v
FLAG -272 528 0
FLAG 0 80 q3
FLAG 48 80 q4
FLAG 480 80 q13
FLAG 416 80 q12
FLAG 352 80 q11
FLAG 288 80 q9
FLAG 240 80 q8
FLAG 192 80 q7
FLAG 400 368 f1
FLAG 784 96 f1
FLAG 784 128 q3
FLAG 784 160 q4
FLAG 784 256 q7
FLAG 784 320 q9
FLAG 784 384 q11
FLAG 784 416 q12
FLAG 784 448 q13
FLAG 784 288 q8
FLAG 864 128 q3_
FLAG 864 160 q4_
FLAG 864 256 q7_
FLAG 864 288 q8_
FLAG 864 320 q9_
FLAG 864 384 q11_
FLAG 864 416 q12_
FLAG 864 448 q13_
FLAG 864 96 f1_
FLAG 784 192 q5
FLAG 864 192 q5_
FLAG 784 224 q6
FLAG 864 224 q6_
FLAG 96 80 q5
FLAG 144 80 q6
SYMBOL CDlogic\\4060m1 240 240 R0
WINDOW 0 0 0 Left 0
SYMATTR InstName 4060m1
SYMBOL Misc\\battery -288 256 R0
SYMATTR InstName V1
SYMATTR Value 5v
SYMBOL res -144 384 R0
SYMATTR InstName R3
SYMATTR Value 10k
SYMBOL cap -144 288 R0
SYMATTR InstName C2
SYMATTR Value 100n
SYMBOL voltage -272 416 R0
WINDOW 3 24 154 Left 0
WINDOW 123 0 0 Left 0
WINDOW 39 0 0 Left 0
SYMATTR Value PULSE(0 5 1m 1u 1u .5m 1m)
SYMATTR InstName V2
SYMBOL Misc\\dview12 800 240 R0
SYMATTR InstName U2
SYMBOL res 240 400 R0
SYMATTR InstName R4
SYMATTR Value 10k
SYMBOL res 128 400 R0
SYMATTR InstName R5
SYMATTR Value 1k
SYMBOL cap 368 432 R0
SYMATTR InstName C5
SYMATTR Value 1n
TEXT 456 488 Left 0 ;.lib cd4000.lib
TEXT 488 568 Left 0 !.include dview.lib
TEXT -96 392 Left 0 ;power RESET
TEXT -240 624 Left 0 !.tran 0 1 1m 1m startup uic
TEXT -384 432 Left 0 ;test only
