Version 4
SHEET 1 880 680
WIRE -624 -176 -928 -176
WIRE -928 -112 -928 -176
WIRE -928 -112 -1376 -112
WIRE -912 -112 -928 -112
WIRE -624 -112 -624 -176
WIRE -544 -112 -624 -112
WIRE -1200 -64 -1232 -64
WIRE -1072 -48 -1088 -48
WIRE -960 -48 -976 -48
WIRE -912 -48 -960 -48
WIRE -544 -48 -592 -48
WIRE -1376 -32 -1376 -112
WIRE -1376 -32 -1408 -32
WIRE -1264 -32 -1296 -32
WIRE -1200 -32 -1264 -32
WIRE -272 16 -320 16
WIRE -1232 48 -1232 -64
WIRE -1088 48 -1088 -48
WIRE -960 48 -960 -48
WIRE -272 48 -320 48
WIRE -272 80 -320 80
WIRE -656 112 -688 112
WIRE -656 144 -688 144
WIRE -272 144 -320 144
WIRE -656 176 -688 176
WIRE -272 176 -320 176
WIRE -592 208 -592 -48
WIRE -592 208 -688 208
WIRE -576 208 -592 208
WIRE -272 208 -320 208
FLAG -1088 48 rtc
IOPIN -1088 48 In
FLAG -960 48 ctc
IOPIN -960 48 In
FLAG -1408 -32 mr
IOPIN -1408 -32 In
FLAG -1232 48 rs
IOPIN -1232 48 In
FLAG -656 144 q4
IOPIN -656 144 Out
FLAG -272 16 q7
IOPIN -272 16 Out
FLAG -656 112 q3
IOPIN -656 112 Out
FLAG -272 208 q13
IOPIN -272 208 Out
FLAG -272 176 q12
IOPIN -272 176 Out
FLAG -272 144 q11
IOPIN -272 144 Out
FLAG -272 80 q9
IOPIN -272 80 Out
FLAG -272 48 q8
IOPIN -272 48 Out
FLAG -576 208 q6
IOPIN -576 208 Out
FLAG -656 176 q5
IOPIN -656 176 Out
SYMBOL CDlogic\\CD4049B -1024 -112 R0
WINDOW 3 -53 113 Left 0
SYMATTR InstName U1
SYMBOL CDlogic\\CD4011B -1152 -112 R0
WINDOW 3 -63 114 Left 0
SYMATTR InstName U3
SYMBOL CDlogic\\CD4049B -1328 -96 R0
WINDOW 3 -18 101 Left 0
SYMATTR InstName U4
SYMBOL CDlogic\\CD4024B -800 -176 R0
SYMATTR InstName U7
SYMBOL CDlogic\\CD4024B -432 -176 R0
SYMATTR InstName U8
TEXT -1152 192 Left 0 !.include cd4000.lib
TEXT -1224 32 Left 0 ;11
TEXT -1408 -56 Left 0 ;12
TEXT -1080 32 Left 0 ;10
TEXT -952 32 Left 0 ;9
TEXT -680 104 Left 0 ;7
TEXT -680 136 Left 0 ;5
TEXT -680 168 Left 0 ;4
TEXT -680 200 Left 0 ;6
TEXT -312 200 Left 0 ;3
TEXT -312 168 Left 0 ;2
TEXT -312 136 Left 0 ;1
TEXT -320 72 Left 0 ;15
TEXT -320 40 Left 0 ;13
TEXT -320 8 Left 0 ;14
