Version 4
SHEET 1 1196 756
WIRE 0 128 0 80
WIRE 48 128 48 80
WIRE 192 128 192 80
WIRE 240 128 240 80
WIRE 288 128 288 80
WIRE 352 128 352 80
WIRE 416 128 416 80
WIRE 480 128 480 80
WIRE -128 368 -128 352
WIRE 32 368 32 352
WIRE 32 368 -128 368
WIRE 144 384 144 352
WIRE 176 384 144 384
WIRE 256 384 256 352
WIRE 272 384 256 384
WIRE -128 400 -128 368
WIRE 144 416 144 384
WIRE 256 416 256 384
WIRE 384 416 384 352
WIRE -272 528 -272 512
WIRE 144 528 144 496
WIRE 256 528 256 496
WIRE 256 528 144 528
WIRE 384 528 384 480
WIRE 384 528 256 528
FLAG 912 432 0
FLAG 912 352 +5v
FLAG 736 176 f1
FLAG 816 208 q3_
FLAG 736 208 q3
FLAG 816 240 q4_
FLAG 816 272 q7_
FLAG 736 240 q4
FLAG 736 272 q7
FLAG 736 304 q8
FLAG 736 336 q9
FLAG 736 368 q11
FLAG 736 400 q12
FLAG 736 432 q13
FLAG 816 304 q8_
FLAG 816 336 q9_
FLAG 816 368 q11_
FLAG 816 400 q12_
FLAG 816 432 q13_
FLAG -128 480 0
FLAG -128 288 +5v
FLAG -272 528 0
FLAG 0 80 q3
FLAG 48 80 q4
FLAG 480 80 q13
FLAG 416 80 q12
FLAG 352 80 q11
FLAG 288 80 q9
FLAG 240 80 q8
FLAG 192 80 q7
FLAG 272 384 f1
FLAG 816 176 f1_
SYMBOL CDlogic\\4060m1 240 240 R0
WINDOW 0 0 0 Left 0
SYMATTR InstName 4060m1
SYMBOL Misc\\battery 912 336 R0
SYMATTR InstName V1
SYMATTR Value 5v
SYMBOL Misc\\dview10 752 320 R0
SYMATTR InstName U1
SYMBOL res -144 384 R0
SYMATTR InstName R3
SYMATTR Value 10k
SYMBOL cap -144 288 R0
SYMATTR InstName C2
SYMATTR Value 100n
SYMBOL voltage -272 416 R0
WINDOW 3 24 154 Left 0
WINDOW 123 0 0 Left 0
WINDOW 39 0 0 Left 0
SYMATTR InstName V2
SYMATTR Value PULSE(0 5 1m 1u 1u .5m 1m)
SYMBOL cap 368 416 R0
SYMATTR InstName C1
SYMATTR Value 10n
SYMBOL res 240 400 R0
SYMATTR InstName R1
SYMATTR Value 10k
SYMBOL res 128 400 R0
SYMATTR InstName R2
SYMATTR Value 1k
TEXT 456 488 Left 0 ;.lib cd4000.lib
TEXT 704 536 Left 0 !.include dview.lib
TEXT -96 392 Left 0 ;power RESET
TEXT 134 572 Left 0 !.tran 0 5 0 1m startup uic
TEXT -384 432 Left 0 ;test only
