Version 4
SHEET 1 880 680
WIRE -624 -176 -928 -176
WIRE -928 -112 -928 -176
WIRE -928 -112 -1376 -112
WIRE -912 -112 -928 -112
WIRE -624 -112 -624 -176
WIRE -544 -112 -624 -112
WIRE -1200 -64 -1232 -64
WIRE -1072 -48 -1088 -48
WIRE -960 -48 -976 -48
WIRE -912 -48 -960 -48
WIRE -544 -48 -592 -48
WIRE -1376 -32 -1376 -112
WIRE -1376 -32 -1408 -32
WIRE -1264 -32 -1296 -32
WIRE -1200 -32 -1264 -32
WIRE -272 16 -320 16
WIRE -1376 32 -1376 -32
WIRE -1376 32 -1456 32
WIRE -960 32 -960 -48
WIRE -960 32 -992 32
WIRE -1232 48 -1232 -64
WIRE -1088 48 -1088 -48
WIRE -960 48 -960 32
WIRE -272 48 -320 48
WIRE -272 80 -320 80
WIRE -1456 96 -1456 32
WIRE -1280 96 -1376 96
WIRE -656 112 -688 112
WIRE -1280 128 -1280 96
WIRE -992 128 -992 32
WIRE -992 128 -1280 128
WIRE -656 144 -688 144
WIRE -272 144 -320 144
WIRE -656 176 -688 176
WIRE -272 176 -320 176
WIRE -592 208 -592 -48
WIRE -592 208 -688 208
WIRE -576 208 -592 208
WIRE -272 208 -320 208
FLAG -1088 48 rtc
IOPIN -1088 48 In
FLAG -960 48 ctc
IOPIN -960 48 In
FLAG -1408 -32 mr
IOPIN -1408 -32 In
FLAG -1232 48 rs
IOPIN -1232 48 In
FLAG -656 144 q4
IOPIN -656 144 Out
FLAG -272 16 q7
IOPIN -272 16 Out
FLAG -656 112 q3
IOPIN -656 112 Out
FLAG -272 208 q13
IOPIN -272 208 Out
FLAG -272 176 q12
IOPIN -272 176 Out
FLAG -272 144 q11
IOPIN -272 144 Out
FLAG -272 80 q9
IOPIN -272 80 Out
FLAG -272 48 q8
IOPIN -272 48 Out
FLAG -576 208 q6
IOPIN -576 208 Out
FLAG -656 176 q5
IOPIN -656 176 Out
FLAG -1376 176 0
FLAG -1456 176 0
SYMBOL CD4049B -1024 -112 R0
WINDOW 3 -53 113 Left 2
SYMATTR InstName U1
SYMBOL CD4011B -1152 -112 R0
WINDOW 3 -63 114 Left 2
SYMATTR InstName U3
SYMBOL CD4049B -1328 -96 R0
WINDOW 3 -18 101 Left 2
SYMATTR InstName U4
SYMBOL CD4024B -800 -176 R0
SYMATTR InstName U7
SYMBOL CD4024B -432 -176 R0
SYMATTR InstName U8
SYMBOL voltage -1376 80 R0
WINDOW 123 0 0 Left 2
WINDOW 39 0 0 Left 2
SYMATTR InstName V1
SYMATTR Value PULSE(0 5 0 .1u .1u .5u 1u)
SYMBOL voltage -1456 80 R0
WINDOW 123 0 0 Left 2
WINDOW 39 0 0 Left 2
SYMATTR InstName V2
SYMATTR Value 5
TEXT -928 288 Left 2 !.include cd4000.lib
TEXT -1224 32 Left 2 ;11
TEXT -1408 -56 Left 2 ;12
TEXT -1080 32 Left 2 ;10
TEXT -952 32 Left 2 ;9
TEXT -680 104 Left 2 ;7
TEXT -680 136 Left 2 ;5
TEXT -680 168 Left 2 ;4
TEXT -680 200 Left 2 ;6
TEXT -312 200 Left 2 ;3
TEXT -312 168 Left 2 ;2
TEXT -312 136 Left 2 ;1
TEXT -320 72 Left 2 ;15
TEXT -320 40 Left 2 ;13
TEXT -320 8 Left 2 ;14
TEXT -1392 296 Left 2 !.tran 0 755u 750u 10n startup uic
