Version 4
SHEET 1 1196 824
WIRE 0 128 0 80
WIRE 48 128 48 80
WIRE 192 128 192 80
WIRE 240 128 240 80
WIRE 288 128 288 80
WIRE 352 128 352 80
WIRE 416 128 416 80
WIRE 480 128 480 80
WIRE -128 368 -128 352
WIRE 32 368 32 352
WIRE 32 368 -128 368
WIRE 384 368 384 352
WIRE 400 368 384 368
WIRE -128 400 -128 368
WIRE 144 432 144 352
FLAG -288 352 0
FLAG -288 272 +5v
FLAG -128 480 0
FLAG -128 288 +5v
FLAG 0 80 q3
FLAG 48 80 q4
FLAG 480 80 q13
FLAG 416 80 q12
FLAG 352 80 q11
FLAG 288 80 q9
FLAG 240 80 q8
FLAG 192 80 q7
FLAG 400 368 f1
FLAG 784 96 f1
FLAG 784 128 q3
FLAG 784 160 q4
FLAG 784 256 q7
FLAG 784 320 q9
FLAG 784 384 q11
FLAG 784 416 q12
FLAG 784 448 q13
FLAG 784 288 q8
FLAG 864 128 q3_
FLAG 864 160 q4_
FLAG 864 256 q7_
FLAG 864 288 q8_
FLAG 864 320 q9_
FLAG 864 384 q11_
FLAG 864 416 q12_
FLAG 864 448 q13_
FLAG 864 96 f1_
FLAG 784 192 q5
FLAG 864 192 q5_
FLAG 784 224 q6
FLAG 864 224 q6_
FLAG 144 512 0
SYMBOL CDlogic\\4060m1 240 240 R0
WINDOW 0 0 0 Left 0
SYMATTR InstName 4060m1
SYMBOL Misc\\battery -288 256 R0
SYMATTR InstName V1
SYMATTR Value 5v
SYMBOL res -144 384 R0
SYMATTR InstName R3
SYMATTR Value 10k
SYMBOL cap -144 288 R0
SYMATTR InstName C2
SYMATTR Value 100n
SYMBOL Misc\\dview12 800 240 R0
SYMATTR InstName U2
SYMBOL voltage 144 416 R0
WINDOW 123 0 0 Left 0
WINDOW 39 0 0 Left 0
SYMATTR InstName V2
SYMATTR Value PULSE(0 5 0 .1u .1u .5u 1u)
TEXT 456 488 Left 0 ;.lib cd4000.lib
TEXT 488 568 Left 0 !.include dview.lib
TEXT -96 392 Left 0 ;power RESET
TEXT -240 624 Left 0 !.tran 0 755u 750u 10n startup uic
TEXT 144 392 Left 0 ;rs
TEXT 256 400 Left 0 ;rtc
