Version 4
SHEET 1 2080 1316
WIRE 208 0 48 0
WIRE 240 0 208 0
WIRE 880 0 736 0
WIRE 48 16 48 0
WIRE 880 16 880 0
WIRE 48 112 48 96
WIRE 240 144 240 0
WIRE 208 176 -96 176
WIRE 432 176 272 176
WIRE 736 176 736 0
WIRE 80 208 64 208
WIRE 208 208 80 208
WIRE 704 208 592 208
WIRE 928 208 768 208
WIRE -96 240 -96 176
WIRE 64 240 64 208
WIRE 432 240 432 176
WIRE 704 240 624 240
WIRE 240 272 240 240
WIRE 928 272 928 208
WIRE 736 320 736 272
WIRE -96 352 -96 320
WIRE 64 352 64 320
WIRE 432 352 432 320
FLAG 48 112 0
FLAG -96 352 0
FLAG 64 352 0
FLAG 240 272 0
FLAG -96 176 IN
FLAG 432 176 OUT
FLAG 208 0 vcc
FLAG 80 208 ctr5
FLAG 432 352 0
FLAG 736 320 0
FLAG 928 352 0
FLAG 624 240 ctr5
IOPIN 624 240 In
FLAG 592 208 IN
IOPIN 592 208 In
FLAG 880 96 0
SYMBOL voltage 48 0 R0
SYMATTR InstName V1
SYMATTR Value {VCC}
SYMBOL voltage -96 224 R0
WINDOW 123 24 132 Left 0
WINDOW 39 0 0 Left 0
SYMATTR Value2 AC 1
SYMATTR InstName V2
SYMATTR Value {VCC/2}
SYMBOL voltage 64 224 R0
SYMATTR InstName V3
SYMATTR Value {VCC}
SYMBOL CD4066 240 192 R0
SYMATTR InstName U1
SYMBOL current 432 240 R0
WINDOW 123 0 0 Left 0
WINDOW 39 0 0 Left 0
SYMATTR InstName I1
SYMATTR Value 100µ
SYMBOL CD4066 736 224 R0
SYMATTR InstName U2
SYMBOL res 912 256 R0
SYMATTR InstName R1
SYMATTR Value 10k
SYMBOL voltage 880 0 R0
SYMATTR InstName V4
SYMATTR Value 10
TEXT -840 288 Left 0 !.OP
TEXT -840 256 Left 0 !.DC V2 0 {VCC} 0.01
TEXT -832 168 Left 0 !.include cd4066.sub
TEXT -840 216 Left 0 !.step param VCC 4 12 4
TEXT -840 328 Left 0 ;.AC list 159154.94 ; current into a capacitor for AC=1V is 1uA/pF
TEXT -400 136 Left 0 ;CD4066 Test Circuit\n \nRds_on = V(in,out)/100uA\n \nPlot: V(in,out)/100uA
TEXT -600 96 Left 0 !.param VCC=9
