Version 4
SHEET 1 1028 680
WIRE 720 80 656 80
WIRE 832 80 784 80
WIRE 192 96 -48 96
WIRE 592 96 192 96
WIRE 192 128 192 96
WIRE 160 160 -48 160
WIRE 336 160 224 160
WIRE 368 160 336 160
WIRE 464 160 432 160
WIRE 512 160 464 160
WIRE 656 160 656 80
WIRE 656 160 512 160
WIRE 720 160 656 160
WIRE 832 160 832 80
WIRE 832 160 800 160
WIRE 848 160 832 160
WIRE 1024 160 848 160
WIRE 160 192 64 192
WIRE 336 192 336 160
WIRE 464 192 464 160
WIRE 512 192 512 160
WIRE 592 192 592 96
WIRE 848 208 848 160
WIRE 192 272 192 224
WIRE 64 288 64 192
WIRE 64 288 0 288
WIRE 0 304 0 288
FLAG 336 272 0
FLAG 592 272 0
FLAG 0 384 0
FLAG -48 240 0
FLAG 464 256 0
FLAG 512 272 0
FLAG 848 272 0
FLAG 192 272 0
SYMBOL Digital\\CD4066 192 176 R0
SYMATTR InstName U1
SYMBOL res 320 176 R0
SYMATTR InstName R1
SYMATTR Value 100k
SYMBOL Misc\\battery 592 176 R0
SYMATTR InstName V1
SYMATTR Value 9
SYMBOL voltage 0 288 R0
WINDOW 123 0 0 Left 0
WINDOW 39 0 0 Left 0
SYMATTR InstName V2
SYMATTR Value PULSE(0 5 0 1n 1n .05m .1m 200)
SYMBOL voltage -48 144 R0
WINDOW 123 0 0 Left 0
WINDOW 39 0 0 Left 0
SYMATTR InstName V3
SYMATTR Value SINE(1 1 500 0 0 0 10)
SYMBOL schottky 368 176 R270
WINDOW 0 32 32 VTop 0
WINDOW 3 0 32 VBottom 0
SYMATTR InstName D1
SYMATTR Value BAT54
SYMATTR Description Diode
SYMATTR Type diode
SYMBOL cap 448 192 R0
SYMATTR InstName C1
SYMATTR Value 4.7n
SYMBOL res 496 176 R0
SYMATTR InstName R2
SYMATTR Value 22k
SYMBOL res 816 144 R90
WINDOW 0 0 56 VBottom 0
WINDOW 3 32 56 VTop 0
SYMATTR InstName R3
SYMATTR Value 10k
SYMBOL cap 832 208 R0
SYMATTR InstName C2
SYMATTR Value 10n
TEXT 72 48 Left 0 !.include cd4066.sub
TEXT 112 8 Left 0 !.tran 0 .03 0 1m
