Version 4
SHEET 1 880 680
WIRE 96 144 64 144
WIRE 240 144 208 144
WIRE 256 144 240 144
WIRE 400 144 368 144
WIRE 416 144 400 144
WIRE 64 224 64 144
WIRE 112 224 64 224
WIRE 240 224 240 144
WIRE 240 224 192 224
WIRE 240 240 240 224
WIRE 64 352 64 224
WIRE 96 352 64 352
WIRE 112 352 96 352
WIRE 192 352 176 352
WIRE 240 352 240 320
WIRE 240 352 192 352
WIRE 64 384 64 352
WIRE 240 384 240 352
FLAG 64 448 0
FLAG 240 448 0
FLAG 400 144 fo
FLAG 96 352 x1
FLAG 192 352 x2
SYMBOL res 224 224 R0
SYMATTR InstName R1
SYMATTR Value 2k2
SYMBOL res 208 208 R90
WINDOW 0 0 56 VBottom 0
WINDOW 3 32 56 VTop 0
SYMATTR InstName R2
SYMATTR Value 470k
SYMBOL cap 224 384 R0
WINDOW 3 47 37 Left 0
SYMATTR Value 100p
SYMATTR InstName C1
SYMBOL cap 48 384 R0
WINDOW 3 37 43 Left 0
SYMATTR Value 100p
SYMATTR InstName C2
SYMBOL Misc\\xtal 176 336 R90
WINDOW 0 0 32 VBottom 0
WINDOW 3 32 32 VTop 0
SYMATTR InstName C3
SYMATTR Value 16e-11
SYMATTR SpiceLine Rser=100 Lser=1000m Rpar=100meg Cpar=10f
SYMBOL CDlogic\\CD4049B 144 80 R0
SYMATTR InstName U1
SYMATTR SpiceLine VDD=5  SPEED=.1  TRIPDT=5e-9
SYMBOL CDlogic\\CD4049B 304 80 R0
SYMATTR InstName U2
SYMATTR SpiceLine VDD=5  SPEED=0.1 TRIPDT=5e-9
TEXT -272 424 Left 0 !.lib cd4000.lib
TEXT 24 520 Left 0 !.tran 0 302u 300u 1u uic
